version 2
1
9
.tran 1u 1m{return}{return}{return}.kicad adjustpaths{return}.save all{return}.probe alli
4
2
I(R103)
 
1
V(+12V)
 
1
V(/D)
 
1
V(/SW)
 
